Circuit: *connections A(in) G(out) VDD VSS

Fatal Error: No analysis request found.
