Circuit: * Z:\home\solomon\Analog lab\EXP_1\Draft1.asc

WARNING: Node NC_01 is floating.

Direct Newton iteration for .op point succeeded.

Date: Thu Feb 04 22:30:23 2021
Total elapsed time: 0.054 seconds.

tnom = 27
temp = 27
method = modified trap
totiter = 2093
traniter = 2083
tranpoints = 1042
accept = 1042
rejected = 0
matrix size = 19
fillins = 2
solver = Normal
Matrix Compiler1: 1.40 KB object code size  0.4/0.2/[0.2]
Matrix Compiler2: 1.84 KB object code size  0.3/0.3/[0.2]

