Circuit: * Z:\home\solomon\Analog lab\EXP_1\Q1.asc

Direct Newton iteration failed to find .op point.  (Use ".option noopiter" to skip.)
Starting Gmin stepping
Gmin = 10
Gmin = 1.07374
vernier = 0.5
vernier = 0.25
vernier = 0.125
Gmin = 1.11693
vernier = 0.166667
vernier = 0.0833333
vernier = 0.0416667
vernier = 0.0208333
Gmin = 1.00804
vernier = 0.0104167
vernier = 0.00520833
vernier = 0.00260417
vernier = 0.00130208
Gmin = 1.00021
vernier = 0.000651042
vernier = 0.000488281
Gmin = 0
Gmin stepping failed

Starting source stepping with srcstepmethod=0
Source Step = 3.0303%
Source Step = 33.3333%
Source Step = 63.6364%
Source Step = 88.6364%
vernier = 0.0625
Source Step = 87.8995%
Source Step = 87.9291%
Source Step = 87.9587%
Source Step = 87.9883%
Source Step = 88.0179%
Source Step = 88.0475%
vernier = 0.00146484
Source Step = 88.0919%
Source Step = 88.1362%
Source Step = 88.1806%
Source Step = 88.225%
Source Step = 88.2694%
vernier = 0.00219727
Source Step = 88.3338%
Source Step = 88.4004%
Source Step = 88.4669%
Source Step = 88.5335%
Source Step = 88.6001%
vernier = 0.0032959
Source Step = 88.6933%
Source Step = 88.7932%
Source Step = 88.8931%
Source Step = 88.993%
Source Step = 89.0928%
vernier = 0.00494385
Source Step = 89.2277%
Source Step = 89.3775%
Source Step = 89.5273%
Source Step = 89.6771%
Source Step = 89.8269%
vernier = 0.00741577
Source Step = 90.0217%
Source Step = 90.1228%
Source Step = 90.179%
Source Step = 90.2352%
Source Step = 90.2913%
Source Step = 90.3475%
Source Step = 90.4037%
Source Step = 90.4599%
Source Step = 90.5161%
Source Step = 90.5722%
Source Step = 90.6284%
Source Step = 90.6846%
Source Step = 90.7408%
Source Step = 90.797%
Source Step = 90.8531%
Source Step = 90.9093%
Source Step = 90.9655%
Source Step = 91.0217%
Source Step = 91.0779%
Source Step = 91.134%
Source Step = 91.1902%
Source Step = 91.2464%
Source Step = 91.3026%
Source Step = 91.3588%
Source Step = 91.4149%
Source Step = 91.4711%
Source Step = 91.5273%
Source Step = 91.5835%
Source Step = 91.6397%
Source Step = 91.6958%
Source Step = 91.752%
Source Step = 91.8082%
Starting source stepping with srcstepmethod=1
Source Step = 3.0303%
Source Step = 33.3333%
Source Step = 63.6364%
Source Step = 88.6364%
vernier = 0.0625
Source stepping failed

Pseudo transient terminated at 102.49 s, solution accepted ready or not!
Early termination of direct N-R iteration.
Direct Newton iteration failed to find .op point.  (Use ".option noopiter" to skip.)
Starting Gmin stepping
Gmin = 10
vernier = 0.5
Gmin = 2.3014
vernier = 0.666667
vernier = 0.333333
vernier = 0.166667
Gmin = 1.18387
vernier = 0.0833333
vernier = 0.0416667
vernier = 0.0555555
Gmin = 1.13906
vernier = 0.074074
vernier = 0.037037
Gmin = 1.00164
vernier = 0.0185185
vernier = 0.00925925
vernier = 0.00462963
vernier = 0.00231481
Gmin = 0.999903
vernier = 0.00115741
vernier = 0.000578703
vernier = 0.000434027
Gmin = 0
Gmin stepping failed

Starting source stepping with srcstepmethod=0
Source Step = 3.0303%
Source Step = 33.3333%
Source Step = 63.6364%
Source Step = 88.6364%
vernier = 0.0625
Source Step = 87.8995%
Source Step = 87.9291%
Source Step = 87.9587%
Source Step = 87.9883%
Source Step = 88.0179%
Source Step = 88.0475%
vernier = 0.00146484
Source Step = 88.0919%
Source Step = 88.1362%
Source Step = 88.1806%
Source Step = 88.225%
Source Step = 88.2694%
vernier = 0.00219727
Source Step = 88.3338%
Source Step = 88.4004%
Source Step = 88.4669%
Source Step = 88.5335%
Source Step = 88.6001%
vernier = 0.0032959
Source Step = 88.6933%
Source Step = 88.7932%
Source Step = 88.8931%
Source Step = 88.993%
Source Step = 89.0928%
vernier = 0.00494385
Source Step = 89.2277%
Source Step = 89.3775%
Source Step = 89.5273%
Source Step = 89.6771%
Source Step = 89.8269%
vernier = 0.00741577
Source Step = 90.0217%
Source Step = 90.1228%
Source Step = 90.179%
Source Step = 90.2352%
Source Step = 90.2913%
Source Step = 90.3475%
Source Step = 90.4037%
Source Step = 90.4599%
Source Step = 90.5161%
Source Step = 90.5722%
Source Step = 90.6284%
Source Step = 90.6846%
Source Step = 90.7408%
Source Step = 90.797%
Source Step = 90.8531%
Source Step = 90.9093%
Source Step = 90.9655%
Source Step = 91.0217%
Source Step = 91.0779%
Source Step = 91.134%
Source Step = 91.1902%
Source Step = 91.2464%
Source Step = 91.3026%
Source Step = 91.3588%
Source Step = 91.4149%
Starting source stepping with srcstepmethod=1
Source Step = 3.0303%
Source Step = 33.3333%
Source Step = 63.6364%
Source Step = 88.6364%
vernier = 0.0625
Source stepping failed

Pseudo transient terminated at 102.885 s, solution accepted ready or not!

Date: Sun Jan 31 21:25:37 2021
Total elapsed time: 8.125 seconds.

tnom = 27
temp = 27
method = trap
totiter = 65806
traniter = 0
tranpoints = 0
accept = 0
rejected = 37
matrix size = 147
fillins = 283
solver = Normal
Thread vector: 20.3/9.6[3] 0.0/0.0[3] 5.2/3.5[3] 1.3/2.5[1]  2592/500
Matrix Compiler1: 21.18 KB object code size  4.4/2.4/[1.8]
Matrix Compiler2: 17.09 KB object code size  2.6/3.1/[1.4]

