Circuit: * Z:\home\solomon\Analog lab\EXP_1\Q2.asc


Date: Sun Jan 31 22:55:06 2021
Total elapsed time: 0.321 seconds.

tnom = 27
temp = 27
method = trap
totiter = 12026
traniter = 0
tranpoints = 0
accept = 0
rejected = 0
matrix size = 9
fillins = 0
solver = Normal
Matrix Compiler1: 404 bytes object code size  0.2/0.1/[0.1]
Matrix Compiler2: 763 bytes object code size  0.2/0.2/[0.1]

