Circuit: * Z:\home\solomon\Analog lab\EXP_1\Q2_3.asc

Direct Newton iteration for .op point succeeded.

Date: Sun Jan 31 23:30:38 2021
Total elapsed time: 0.054 seconds.

tnom = 27
temp = 27
method = modified trap
totiter = 3937
traniter = 3929
tranpoints = 1391
accept = 1282
rejected = 109
matrix size = 10
fillins = 1
solver = Normal
Matrix Compiler1: 614 bytes object code size  0.2/0.2/[0.1]
Matrix Compiler2: off  [0.1]/0.2/0.2

