Questionable use of curly braces in "vdd n001 0 {vdd}"
    Error: undefined symbol in: "[vdd]"
Circuit: * Z:\home\solomon\Analog lab\EXP_1\Q3.asc

Error on line 2 : vdd n001 0 (vdd)
	 Unknown parameter "vdd"
Vdd: Missing value, assumed 0V @ DC
.OP point found by inspection.

Date: Sun Jan 31 21:18:29 2021
Total elapsed time: 0.146 seconds.

tnom = 27
temp = 27
method = trap
totiter = 12000
traniter = 0
tranpoints = 0
accept = 0
rejected = 0
matrix size = 8
fillins = 0
solver = Normal
Matrix Compiler1: 354 bytes object code size  0.2/0.1/[0.1]
Matrix Compiler2: 644 bytes object code size  0.1/0.2/[0.1]

