Circuit: * Z:\home\solomon\Analog lab\EXP_2\Q1.asc

Direct Newton iteration for .op point succeeded.

Date: Sat Feb 06 14:15:54 2021
Total elapsed time: 0.046 seconds.

tnom = 27
temp = 27
method = modified trap
totiter = 3227
traniter = 3220
tranpoints = 1261
accept = 1192
rejected = 69
matrix size = 10
fillins = 0
solver = Normal
Matrix Compiler1: 738 bytes object code size  0.2/0.2/[0.2]
Matrix Compiler2: 864 bytes object code size  0.2/0.2/[0.2]

