Circuit: * Z:\home\solomon\Analog lab\EXP_2\Q2.asc

Direct Newton iteration for .op point succeeded.

Date: Sat Feb 06 22:19:02 2021
Total elapsed time: 0.311 seconds.

tnom = 27
temp = 27
method = modified trap
totiter = 20060
traniter = 20035
tranpoints = 10018
accept = 10018
rejected = 0
matrix size = 31
fillins = 6
solver = Normal
Matrix Compiler1: 3.01 KB object code size  1.1/0.4/[0.3]
Matrix Compiler2: off  [0.5]/1.1/1.3

