Circuit: * Z:\home\solomon\Analog lab\EXP_2\q2adv1.asc

R4: both pins shorted together -- ignoring.
Direct Newton iteration for .op point succeeded.

Date: Sat Feb 06 19:36:07 2021
Total elapsed time: 0.087 seconds.

tnom = 27
temp = 27
method = modified trap
totiter = 2218
traniter = 2211
tranpoints = 1055
accept = 1051
rejected = 4
matrix size = 32
fillins = 2
solver = Normal
Matrix Compiler1: 3.37 KB object code size  1.3/0.8/[0.4]
Matrix Compiler2: 3.41 KB object code size  0.7/1.0/[0.6]

