Circuit: * Z:\home\solomon\Analog lab\EXP_2\Q2adv.asc

Direct Newton iteration for .op point succeeded.

Date: Fri Feb 05 23:16:38 2021
Total elapsed time: 0.069 seconds.

tnom = 27
temp = 27
method = modified trap
totiter = 2247
traniter = 2239
tranpoints = 1049
accept = 1047
rejected = 2
matrix size = 35
fillins = 3
solver = Normal
Matrix Compiler1: 3.65 KB object code size  0.8/0.4/[0.2]
Matrix Compiler2: 3.71 KB object code size  0.4/0.6/[0.3]

