Circuit: * Z:\home\solomon\Analog lab\EXP_2\Q3.asc

R4: both pins shorted together -- ignoring.
Direct Newton iteration for .op point succeeded.
.step vdd=5
.step vdd=5.5
.step vdd=6
.step vdd=6.5
.step vdd=7
.step vdd=7.5
.step vdd=8
.step vdd=8.5
.step vdd=9

Date: Sat Feb 06 19:42:28 2021
Total elapsed time: 1.080 seconds.

tnom = 27
temp = 27
method = trap
totiter = 8
traniter = 0
tranpoints = 0
accept = 0
rejected = 0
matrix size = 32
fillins = 2
solver = Normal
Matrix Compiler1:     187 opcodes
Matrix Compiler2: 3.42 KB object code size
